71255
  PyMOL2.4          3D                             0

 54 57  0  0  0  0  0  0  0  0999 V2000
   -6.8867    3.3434    0.9812 F   0  0  0  0  0  0  0  0  0  0  0  0
   -3.6620   -1.0702   -2.1296 O   0  0  0  0  0  0  0  0  0  0  0  0
    1.7300    1.3544    0.3766 O   0  0  0  0  0  0  0  0  0  0  0  0
    6.0444    2.8524   -0.6991 O   0  0  0  0  0  0  0  0  0  0  0  0
   -0.5731   -2.3115    0.1197 N   0  0  0  0  0  0  0  0  0  0  0  0
    3.0019   -1.3368    0.7056 N   0  0  0  0  0  0  0  0  0  0  0  0
    5.7613    0.6011   -0.1844 N   0  0  0  0  0  0  0  0  0  0  0  0
    5.1618   -1.7133    0.3996 N   0  0  0  0  0  0  0  0  0  0  0  0
    3.8815    2.1282   -0.1653 N   0  0  0  0  0  0  0  0  0  0  0  0
   -3.4979   -2.0585    0.0276 C   0  0  0  0  0  0  0  0  0  0  0  0
   -2.6521   -1.4446    1.1425 C   0  0  0  0  0  0  0  0  0  0  0  0
   -2.7473   -3.1779   -0.6927 C   0  0  0  0  0  0  0  0  0  0  0  0
   -1.2236   -1.1265    0.6929 C   0  0  0  0  0  0  0  0  0  0  0  0
   -1.3087   -2.7969   -1.0548 C   0  0  0  0  0  0  0  0  0  0  0  0
    0.8143   -2.0116   -0.2347 C   0  0  0  0  0  0  0  0  0  0  0  0
    1.6027   -1.6203    1.0118 C   0  0  0  0  0  0  0  0  0  0  0  0
   -3.9402   -0.9950   -0.9351 C   0  0  0  0  0  0  0  0  0  0  0  0
   -4.7274    0.1627   -0.4242 C   0  0  0  0  0  0  0  0  0  0  0  0
    3.5344   -0.1382    0.3644 C   0  0  0  0  0  0  0  0  0  0  0  0
    4.8657   -0.3947    0.1806 C   0  0  0  0  0  0  0  0  0  0  0  0
    4.0049   -2.2572    0.7168 C   0  0  0  0  0  0  0  0  0  0  0  0
    2.9278    1.1439    0.2074 C   0  0  0  0  0  0  0  0  0  0  0  0
   -5.5436   -0.0234    0.6693 C   0  0  0  0  0  0  0  0  0  0  0  0
   -4.6090    1.3771   -1.0633 C   0  0  0  0  0  0  0  0  0  0  0  0
    5.2936    1.9256   -0.3739 C   0  0  0  0  0  0  0  0  0  0  0  0
    7.1709    0.2787   -0.3683 C   0  0  0  0  0  0  0  0  0  0  0  0
   -6.2794    1.0605    1.1484 C   0  0  0  0  0  0  0  0  0  0  0  0
   -5.3446    2.4610   -0.5841 C   0  0  0  0  0  0  0  0  0  0  0  0
    3.3801    3.4850   -0.3568 C   0  0  0  0  0  0  0  0  0  0  0  0
   -6.1799    2.3027    0.5218 C   0  0  0  0  0  0  0  0  0  0  0  0
   -4.3992   -2.5178    0.4495 H   0  0  0  0  0  0  0  0  0  0  0  0
   -2.5994   -2.1696    1.9668 H   0  0  0  0  0  0  0  0  0  0  0  0
   -3.0919   -0.5404    1.5734 H   0  0  0  0  0  0  0  0  0  0  0  0
   -2.7135   -4.0532   -0.0293 H   0  0  0  0  0  0  0  0  0  0  0  0
   -3.2808   -3.5016   -1.5947 H   0  0  0  0  0  0  0  0  0  0  0  0
   -1.2312   -0.2935   -0.0221 H   0  0  0  0  0  0  0  0  0  0  0  0
   -0.7214   -0.7759    1.5976 H   0  0  0  0  0  0  0  0  0  0  0  0
   -0.8163   -3.6928   -1.4531 H   0  0  0  0  0  0  0  0  0  0  0  0
   -1.3011   -2.0482   -1.8565 H   0  0  0  0  0  0  0  0  0  0  0  0
    0.8697   -1.2135   -0.9872 H   0  0  0  0  0  0  0  0  0  0  0  0
    1.2820   -2.8990   -0.6807 H   0  0  0  0  0  0  0  0  0  0  0  0
    1.2343   -0.7347    1.5313 H   0  0  0  0  0  0  0  0  0  0  0  0
    1.6001   -2.4401    1.7419 H   0  0  0  0  0  0  0  0  0  0  0  0
    3.8457   -3.2995    0.9579 H   0  0  0  0  0  0  0  0  0  0  0  0
   -5.6626   -0.9764    1.1716 H   0  0  0  0  0  0  0  0  0  0  0  0
   -3.9583    1.5150   -1.9215 H   0  0  0  0  0  0  0  0  0  0  0  0
    7.7505    1.1603   -0.6537 H   0  0  0  0  0  0  0  0  0  0  0  0
    7.2635   -0.4749   -1.1564 H   0  0  0  0  0  0  0  0  0  0  0  0
    7.5705   -0.1177    0.5702 H   0  0  0  0  0  0  0  0  0  0  0  0
   -6.9331    0.9371    2.0068 H   0  0  0  0  0  0  0  0  0  0  0  0
   -5.2665    3.4287   -1.0709 H   0  0  0  0  0  0  0  0  0  0  0  0
    2.3048    3.5686   -0.1844 H   0  0  0  0  0  0  0  0  0  0  0  0
    3.6071    3.7997   -1.3804 H   0  0  0  0  0  0  0  0  0  0  0  0
    3.9090    4.1528    0.3306 H   0  0  0  0  0  0  0  0  0  0  0  0
  1 30  1  0  0  0  0
  2 17  2  0  0  0  0
  3 22  2  0  0  0  0
  4 25  2  0  0  0  0
  5 13  1  0  0  0  0
  5 14  1  0  0  0  0
  5 15  1  0  0  0  0
  6 16  1  0  0  0  0
  6 19  1  0  0  0  0
  6 21  1  0  0  0  0
  7 20  1  0  0  0  0
  7 25  1  0  0  0  0
  7 26  1  0  0  0  0
  8 20  1  0  0  0  0
  8 21  2  0  0  0  0
  9 22  1  0  0  0  0
  9 25  1  0  0  0  0
  9 29  1  0  0  0  0
 10 11  1  0  0  0  0
 10 12  1  0  0  0  0
 10 17  1  0  0  0  0
 10 31  1  0  0  0  0
 11 13  1  0  0  0  0
 11 32  1  0  0  0  0
 11 33  1  0  0  0  0
 12 14  1  0  0  0  0
 12 34  1  0  0  0  0
 12 35  1  0  0  0  0
 13 36  1  0  0  0  0
 13 37  1  0  0  0  0
 14 38  1  0  0  0  0
 14 39  1  0  0  0  0
 15 16  1  0  0  0  0
 15 40  1  0  0  0  0
 15 41  1  0  0  0  0
 16 42  1  0  0  0  0
 16 43  1  0  0  0  0
 17 18  1  0  0  0  0
 18 23  2  0  0  0  0
 18 24  1  0  0  0  0
 19 20  2  0  0  0  0
 19 22  1  0  0  0  0
 21 44  1  0  0  0  0
 23 27  1  0  0  0  0
 23 45  1  0  0  0  0
 24 28  2  0  0  0  0
 24 46  1  0  0  0  0
 26 47  1  0  0  0  0
 26 48  1  0  0  0  0
 26 49  1  0  0  0  0
 27 30  2  0  0  0  0
 27 50  1  0  0  0  0
 28 30  1  0  0  0  0
 28 51  1  0  0  0  0
 29 52  1  0  0  0  0
 29 53  1  0  0  0  0
 29 54  1  0  0  0  0
M  END
>  <PUBCHEM_COMPOUND_CID>
71255

>  <PUBCHEM_CONFORMER_RMSD>
0.800000

>  <PUBCHEM_CONFORMER_DIVERSEORDER>
1
278
174
206
127
108
324
12
79
285
253
37
292
77
48
41
78
71
271
65
165
196
346
68
336
264
227
14
96
344
35
13
167
242
297
287
80
81
101
260
233
147
328
75
56
105
237
100
205
209
53
274
114
211
204
203
154
182
210
263
343
232
289
256
333
133
202
347
308
322
181
140
277
93
299
19
73
229
32
305
21
50
22
61
76
235
25
177
307
138
213
340
132
135
171
136
249
280
337
113
193
283
243
250
270
217
40
51
265
139
86
85
284
62
245
342
90
266
173
160
286
148
195
162
222
87
306
72
345
313
33
192
323
124
27
175
187
94
220
338
288
273
176
279
125
261
252
106
302
251
238
198
18
240
321
221
216
231
130
153
82
58
331
315
303
28
228
248
186
183
281
269
83
262
172
104
301
159
23
329
123
98
259
246
230
54
31
39
268
295
208
294
107
157
141
310
10
59
178
137
164
254
212
15
11
327
169
121
247
320
197
215
116
91
144
26
60
88
112
330
52
161
239
84
118
318
7
97
226
66
64
29
185
170
188
155
120
57
214
199
69
300
42
168
255
191
63
180
55
38
317
314
6
339
234
131
311
119
241
45
166
47
290
184
236
110
70
304
223
17
99
348
111
8
92
46
298
67
258
201
5
179
143
325
282
117
272
190
341
150
334
218
275
156
312
109
326
36
89
102
30
189
146
296
4
142
219
332
16
122
267
95
44
145
293
103
43
194
163
74
291
316
200
149
224
2
24
207
3
134
20
129
9
276
49
34
152
151
158
126
128
225
319
257
115
244
335
309


>  <PUBCHEM_MMFF94_PARTIAL_CHARGES>
33
1 -0.19
10 0.06
13 0.27
14 0.27
15 0.27
16 0.26
17 0.42
18 0.09
19 -0.24
2 -0.57
20 0.29
21 0.04
22 0.71
23 -0.15
24 -0.15
25 0.69
26 0.3
27 -0.15
28 -0.15
29 0.3
3 -0.57
30 0.19
4 -0.57
44 0.15
45 0.15
46 0.15
5 -0.81
50 0.15
51 0.15
6 0.05
7 -0.42
8 -0.57
9 -0.42


>  <PUBCHEM_EFFECTIVE_ROTOR_COUNT>
6.200000

>  <PUBCHEM_PHARMACOPHORE_FEATURES>
9
1 2 acceptor
1 3 acceptor
1 4 acceptor
1 5 cation
3 6 8 21 cation
5 6 8 19 20 21 rings
6 18 23 24 27 28 30 rings
6 5 10 11 12 13 14 rings
6 7 9 19 20 22 25 rings


>  <PUBCHEM_HEAVY_ATOM_COUNT>
30

>  <PUBCHEM_ATOM_DEF_STEREO_COUNT>
0

>  <PUBCHEM_ATOM_UDEF_STEREO_COUNT>
0

>  <PUBCHEM_BOND_DEF_STEREO_COUNT>
0

>  <PUBCHEM_BOND_UDEF_STEREO_COUNT>
0

>  <PUBCHEM_ISOTOPIC_ATOM_COUNT>
0

>  <PUBCHEM_COMPONENT_COUNT>
1

>  <PUBCHEM_CACTVS_TAUTO_COUNT>
2

>  <PUBCHEM_CONFORMER_ID>
-1358954495

>  <PUBCHEM_MMFF94_ENERGY>
58.180800

>  <PUBCHEM_FEATURE_SELFOVERLAP>
45.788000

>  <PUBCHEM_SHAPE_FINGERPRINT>
100830 2 18189346834085354957
11070050 100 16443058383511913890
11101153 10 18265611164707350287
11273773 38 18412543176460431793
12107183 9 18337945676144899258
12422481 6 17749392521071241309
12788726 201 17774727459097583825
13690498 29 17701251675633476623
13782708 43 13038918724399070156
13785724 45 17905884778361192082
13885169 86 18410859828806455057
14020679 6 17531253871979895019
14251764 75 18409451392601775449
14347329 18 18412255160068694585
14394314 77 18410860936872003633
14400156 260 18260830381150118424
14790565 3 18409166644670204534
15064981 194 18117002280972108895
15183329 4 18408315601195131662
15338160 23 18335426798817920475
15604295 49 18199463450027476696
16087824 20 18337675200895866392
16110190 28 18334014986710722789
16112460 7 18339647728518119440
18393751 57 18260272907169404923
19302320 297 18193843643732718977
20511986 3 18131063892313965266
20691028 202 18412822461309770337
20715895 44 18271243811793104379
21298829 104 18411416246172745448
22122407 14 18335990830089802690
23572383 38 12031491220770805853
249057 25 18266150929952969639
2838139 119 18410008861976278630
3388396 114 17263830881732823573
4073 2 17968100884177621450
4144715 1 18334587853533199227
50677037 204 18189887793880073685
5104073 3 17894342306796845722
57724786 102 18334857220806379606
6328613 192 18409448111399579796


>  <PUBCHEM_SHAPE_MULTIPOLES>
567.6
19.19
4.09
1.13
1.57
1.39
-0.18
14.75
0.57
-1.09
-0.38
-1.33
-0.22
-2.21


>  <PUBCHEM_SHAPE_SELFOVERLAP>
1229.206000

>  <PUBCHEM_SHAPE_VOLUME>
312.500000

>  <PUBCHEM_COORDINATE_TYPE>
2
5
10


$$$$
